64

Mg        -0.00002        1.85288        1.30258
Mg         1.60465        0.92643        3.90775
Mg        -0.00002        1.85288        6.51291
Mg         1.60465        0.92643        9.11808
Mg        -1.60465        4.63219        1.30258
Mg         0.00002        3.70574        3.90775
Mg        -1.60465        4.63219        6.51291
Mg         0.00002        3.70574        9.11808
Mg        -3.20929        7.41150        1.30258
Mg        -1.60462        6.48505        3.90775
Mg        -3.20929        7.41150        6.51291
Mg        -1.60462        6.48505        9.11808
Mg        -4.81392       10.19081        1.30258
Mg        -3.20925        9.26436        3.90775
Mg        -4.81392       10.19081        6.51291
Mg        -3.20925        9.26436        9.11808
Mg         3.20925        1.85288        1.30258
Mg         4.81392        0.92643        3.90775
Mg         3.20925        1.85288        6.51291
Mg         4.81392        0.92643        9.11808
Mg         1.60462        4.63219        1.30258
Mg         3.20929        3.70574        3.90775
Mg         1.60462        4.63219        6.51291
Mg         3.20929        3.70574        9.11808
Mg        -0.00002        7.41150        1.30258
Mg         1.60465        6.48505        3.90775
Mg        -0.00002        7.41150        6.51291
Mg         1.60465        6.48505        9.11808
Mg        -1.60465       10.19081        1.30258
Mg         0.00002        9.26436        3.90775
Mg        -1.60465       10.19081        6.51291
Mg         0.00002        9.26436        9.11808
Mg         6.41852        1.85288        1.30258
Mg         8.02319        0.92643        3.90775
Mg         6.41852        1.85288        6.51291
Mg         8.02319        0.92643        9.11808
Mg         4.81389        4.63219        1.30258
Mg         6.41856        3.70574        3.90775
Mg         4.81389        4.63219        6.51291
Mg         6.41856        3.70574        9.11808
Mg         3.20925        7.41150        1.30258
Mg         4.81392        6.48505        3.90775
Mg         3.20925        7.41150        6.51291
Mg         4.81392        6.48505        9.11808
Mg         1.60462       10.19081        1.30258
Mg         3.20929        9.26436        3.90775
Mg         1.60462       10.19081        6.51291
Mg         3.20929        9.26436        9.11808
Mg         9.62779        1.85288        1.30258
Mg        11.23246        0.92643        3.90775
Mg         9.62779        1.85288        6.51291
Mg        11.23246        0.92643        9.11808
Mg         8.02316        4.63219        1.30258
Mg         9.62783        3.70574        3.90775
Mg         8.02316        4.63219        6.51291
Mg         9.62783        3.70574        9.11808
Mg         6.41852        7.41150        1.30258
Mg         8.02319        6.48505        3.90775
Mg         6.41852        7.41150        6.51291
Mg         8.02319        6.48505        9.11808
Mg         4.81389       10.19081        1.30258
Mg         6.41856        9.26436        3.90775
Mg         4.81389       10.19081        6.51291
Mg         6.41856        9.26436        9.11808
