64
 generated by VMD
 Mg       12.837060        1.852880        1.302580
 Mg        1.604650        0.926430        3.907750
 Mg       12.837060        1.852880        6.512909
 Mg        1.604650        0.926430        9.118079
 Mg       11.232430        4.632190        1.302580
 Mg        0.000020        3.705740        3.907750
 Mg       11.232430        4.632190        6.512909
 Mg        0.000020        3.705740        9.118079
 Mg        9.627790        7.411500        1.302580
 Mg       11.232460        6.485051        3.907750
 Mg        9.627790        7.411500        6.512909
 Mg       11.232460        6.485051        9.118079
 Mg        8.023160       10.190810        1.302580
 Mg        9.627830        9.264360        3.907750
 Mg        8.023160       10.190810        6.512909
 Mg        9.627830        9.264360        9.118079
 Mg        3.209250        1.852880        1.302580
 Mg        4.813920        0.926430        3.907750
 Mg        3.209250        1.852880        6.512909
 Mg        4.813920        0.926430        9.118079
 Mg        1.604620        4.632190        1.302580
 Mg        3.209290        3.705740        3.907750
 Mg        1.604620        4.632190        6.512909
 Mg        3.209290        3.705740        9.118079
 Mg       12.837060        7.411500        1.302580
 Mg        1.604650        6.485051        3.907750
 Mg       12.837060        7.411500        6.512909
 Mg        1.604650        6.485051        9.118079
 Mg       11.232430       10.190810        1.302580
 Mg        0.000020        9.264360        3.907750
 Mg       11.232430       10.190810        6.512909
 Mg        0.000020        9.264360        9.118079
 Mg        6.418520        1.852880        1.302580
 Mg        8.023190        0.926430        3.907750
 Mg        6.418520        1.852880        6.512909
 Mg        8.023190        0.926430        9.118079
 Mg        4.813890        4.632190        1.302580
 Mg        6.418560        3.705740        3.907750
 Mg        4.813890        4.632190        6.512909
 Mg        6.418560        3.705740        9.118079
 Mg        3.209250        7.411500        1.302580
 Mg        4.813920        6.485051        3.907750
 Mg        3.209250        7.411500        6.512909
 Mg        4.813920        6.485051        9.118079
 Mg        1.604620       10.190810        1.302580
 Mg        3.209290        9.264360        3.907750
 Mg        1.604620       10.190810        6.512909
 Mg        3.209290        9.264360        9.118079
 Mg        9.627790        1.852880        1.302580
 Mg       11.232460        0.926430        3.907750
 Mg        9.627790        1.852880        6.512909
 Mg       11.232460        0.926430        9.118079
 Mg        8.023161        4.632190        1.302580
 Mg        9.627830        3.705740        3.907750
 Mg        8.023161        4.632190        6.512909
 Mg        9.627830        3.705740        9.118079
 Mg        6.418520        7.411500        1.302580
 Mg        8.023190        6.485051        3.907750
 Mg        6.418520        7.411500        6.512909
 Mg        8.023190        6.485051        9.118079
 Mg        4.813890       10.190810        1.302580
 Mg        6.418560        9.264360        3.907750
 Mg        4.813890       10.190810        6.512909
 Mg        6.418560        9.264360        9.118079
